Version 4.1
SHEET 1 880 960
WIRE 208 64 80 64
WIRE 400 64 288 64
WIRE 80 112 80 64
WIRE 400 112 400 64
WIRE 400 224 400 176
WIRE 80 336 80 192
WIRE 400 336 400 304
WIRE 400 336 80 336
WIRE 80 368 80 336
WIRE 224 512 96 512
WIRE 416 512 304 512
WIRE 96 560 96 512
WIRE 416 560 416 512
WIRE 416 672 416 624
WIRE 96 784 96 640
WIRE 416 784 416 752
WIRE 416 784 96 784
WIRE 96 816 96 784
FLAG 80 368 0
FLAG 80 64 IN
FLAG 400 64 OUT
FLAG 96 816 0
FLAG 96 512 IN2
FLAG 416 512 OUT2
SYMBOL voltage 80 96 R0
WINDOW 123 0 0 Left 0
WINDOW 39 0 0 Left 0
SYMATTR InstName V1
SYMATTR Value SINE(0 10 100)
SYMBOL res 304 48 R90
WINDOW 0 0 56 VBottom 2
WINDOW 3 32 56 VTop 2
SYMATTR InstName R1
SYMATTR Value 10k
SYMBOL diode 384 112 R0
SYMATTR InstName D1
SYMBOL voltage 400 208 R0
WINDOW 123 0 0 Left 0
WINDOW 39 0 0 Left 0
SYMATTR InstName V2
SYMATTR Value 2
SYMBOL voltage 96 544 R0
WINDOW 123 0 0 Left 0
WINDOW 39 0 0 Left 0
SYMATTR InstName V3
SYMATTR Value SINE(0 10 100)
SYMBOL res 320 496 R90
WINDOW 0 0 56 VBottom 2
WINDOW 3 32 56 VTop 2
SYMATTR InstName R2
SYMATTR Value 10k
SYMBOL diode 400 560 R0
SYMATTR InstName D2
SYMBOL voltage 416 768 R180
WINDOW 123 0 0 Left 0
WINDOW 39 0 0 Left 0
SYMATTR InstName V4
SYMATTR Value 2
TEXT 288 392 Left 2 ;.tran 0.05
TEXT 304 840 Left 2 !.tran 0.05
TEXT 48 -40 Left 2 ;Positive clipper with positive bias
TEXT 72 944 Left 2 ;Positive clipper with negative bias
