Version 4.1
SHEET 1 880 832
WIRE 208 64 80 64
WIRE 400 64 288 64
WIRE 80 112 80 64
WIRE 400 112 400 64
WIRE 80 256 80 192
WIRE 400 256 400 176
WIRE 400 256 80 256
WIRE 80 288 80 256
WIRE 208 496 80 496
WIRE 400 496 288 496
WIRE 80 544 80 496
WIRE 400 544 400 496
WIRE 80 688 80 624
WIRE 400 688 400 608
WIRE 400 688 80 688
WIRE 80 720 80 688
FLAG 80 288 0
FLAG 80 64 IN
FLAG 400 64 OUT
FLAG 80 720 0
FLAG 80 496 IN1
FLAG 400 496 OUT1
SYMBOL voltage 80 96 R0
WINDOW 123 0 0 Left 0
WINDOW 39 0 0 Left 0
SYMATTR InstName V1
SYMATTR Value SINE(0 10 100)
SYMBOL res 304 48 R90
WINDOW 0 0 56 VBottom 2
WINDOW 3 32 56 VTop 2
SYMATTR InstName R1
SYMATTR Value 10k
SYMBOL diode 384 112 R0
SYMATTR InstName D1
SYMBOL voltage 80 528 R0
WINDOW 123 0 0 Left 0
WINDOW 39 0 0 Left 0
SYMATTR InstName V2
SYMATTR Value SINE(0 10 100)
SYMBOL res 304 480 R90
WINDOW 0 0 56 VBottom 2
WINDOW 3 32 56 VTop 2
SYMATTR InstName R2
SYMATTR Value 10k
SYMBOL diode 416 608 R180
WINDOW 0 24 64 Left 2
WINDOW 3 24 0 Left 2
SYMATTR InstName D2
TEXT 192 288 Left 2 !.tran 0.05
TEXT 192 720 Left 2 ;.tran 0.05
TEXT 56 -40 Left 2 ;Positive clipper without bias
TEXT 80 816 Left 2 ;Negative clipper without bias
