Version 4.1
SHEET 1 2536 1052
WIRE 432 -272 352 -272
WIRE 352 -224 352 -272
WIRE 432 -224 432 -272
WIRE 1632 -176 1552 -176
WIRE 1552 -128 1552 -176
WIRE 1632 -128 1632 -176
WIRE 352 -96 352 -144
WIRE 1552 0 1552 -48
WIRE 352 48 352 -16
WIRE 1120 48 352 48
WIRE 352 96 352 48
WIRE 352 96 128 96
WIRE 576 96 352 96
WIRE 1552 112 1552 80
WIRE 1888 112 1552 112
WIRE 1552 144 1552 112
WIRE 128 160 128 96
WIRE 576 160 576 96
WIRE 1120 192 1120 48
WIRE 1296 192 1120 192
WIRE 1488 192 1376 192
WIRE -128 208 -240 208
WIRE 64 208 -48 208
WIRE 752 208 640 208
WIRE 944 208 832 208
WIRE -240 288 -240 208
WIRE 944 288 944 208
WIRE -240 384 -240 368
WIRE 944 384 944 368
WIRE 128 400 128 256
WIRE 352 400 128 400
WIRE 576 400 576 256
WIRE 576 400 352 400
WIRE 1552 400 1552 240
WIRE 352 448 352 400
FLAG -240 208 IN-A
FLAG -240 384 0
FLAG 944 208 IN-B
FLAG 944 384 0
FLAG 352 448 0
FLAG 432 -224 0
FLAG 1120 48 Stage1--NOR-gate_op
FLAG 1632 -128 0
FLAG 1552 400 0
FLAG 1888 112 Stage2--OR-gate-op
SYMBOL voltage -240 272 R0
WINDOW 3 24 44 Left 2
WINDOW 123 0 0 Left 0
WINDOW 39 0 0 Left 0
SYMATTR Value 5
SYMATTR InstName V1
SYMBOL npn 64 160 R0
SYMATTR InstName Q1
SYMATTR Value BC547B
SYMBOL voltage 352 -128 R180
WINDOW 0 24 96 Left 2
WINDOW 3 24 16 Left 2
WINDOW 123 0 0 Left 0
WINDOW 39 0 0 Left 0
SYMATTR InstName V2
SYMATTR Value 5
SYMBOL res 336 -112 R0
SYMATTR InstName R1
SYMATTR Value 5k
SYMBOL res -32 192 R90
WINDOW 0 0 56 VBottom 2
WINDOW 3 32 56 VTop 2
SYMATTR InstName R2
SYMATTR Value 43k
SYMBOL voltage 944 272 M0
WINDOW 3 24 44 Left 2
WINDOW 123 0 0 Left 0
WINDOW 39 0 0 Left 0
SYMATTR Value 5
SYMATTR InstName V3
SYMBOL npn 640 160 M0
SYMATTR InstName Q2
SYMATTR Value BC547B
SYMBOL res 736 192 M90
WINDOW 0 0 56 VBottom 2
WINDOW 3 32 56 VTop 2
SYMATTR InstName R3
SYMATTR Value 43k
SYMBOL npn 1488 144 R0
SYMATTR InstName Q3
SYMATTR Value BC547B
SYMBOL res 1392 176 R90
WINDOW 0 0 56 VBottom 2
WINDOW 3 32 56 VTop 2
SYMATTR InstName R4
SYMATTR Value 43k
SYMBOL voltage 1552 -32 R180
WINDOW 0 24 96 Left 2
WINDOW 3 24 16 Left 2
WINDOW 123 0 0 Left 0
WINDOW 39 0 0 Left 0
SYMATTR InstName V4
SYMATTR Value 5
SYMBOL res 1536 -16 R0
SYMATTR InstName R5
SYMATTR Value 5k
TEXT -248 -32 Left 2 !.tran 40m
TEXT -224 -64 Left 2 ;.op
TEXT 1920 -112 Center 2 ;in BJT (or u can say TTL logic)\n \nlogic low = 0 to 0.8v\nundefined = 0.8 to 2v\nlogic high = 2v to 5v
TEXT 368 656 Center 2 ;OR gate truth table\n-------------------------\n \nA       B      OP\n---     ---    ---\n0       0      0\n0       1      1\n1       0      1\n1       1      1
TEXT -608 1024 Left 4 ;NOTE :: if u want to study the behaviour (use steady input of 5v and 0 for A and B as per the input choise rather than using pulse
