Version 4.1
SHEET 1 880 680
WIRE 176 32 64 32
WIRE 368 32 256 32
WIRE 368 96 368 32
WIRE 64 112 64 32
WIRE 368 208 368 160
WIRE 64 320 64 192
WIRE 368 320 368 272
WIRE 368 320 64 320
WIRE 64 368 64 320
FLAG 64 368 0
FLAG 64 32 IN
FLAG 368 32 OUT
SYMBOL voltage 64 96 R0
WINDOW 123 0 0 Left 0
WINDOW 39 0 0 Left 0
SYMATTR InstName V1
SYMATTR Value SINE(0 10 100)
SYMBOL res 272 16 R90
WINDOW 0 0 56 VBottom 2
WINDOW 3 32 56 VTop 2
SYMATTR InstName R1
SYMATTR Value 10k
SYMBOL diode 352 96 R0
SYMATTR InstName D1
SYMATTR Value STZ5_6N
SYMBOL diode 384 272 R180
WINDOW 0 24 64 Left 2
WINDOW 3 24 0 Left 2
SYMATTR InstName D2
SYMATTR Value STZ5_6N
TEXT 24 392 Left 2 !.tran 0.05
