Version 4.1
SHEET 1 1976 1072
WIRE 128 32 32 32
WIRE 320 32 192 32
WIRE 512 32 320 32
WIRE 512 96 512 32
WIRE 32 112 32 32
WIRE 320 112 320 32
WIRE 32 256 32 192
WIRE 320 256 320 176
WIRE 320 256 32 256
WIRE 512 256 512 176
WIRE 512 256 320 256
WIRE 32 288 32 256
WIRE 144 672 48 672
WIRE 336 672 208 672
WIRE 528 672 336 672
WIRE 528 736 528 672
WIRE 48 752 48 672
WIRE 336 752 336 672
WIRE 48 896 48 832
WIRE 336 896 336 816
WIRE 336 896 48 896
WIRE 528 896 528 816
WIRE 528 896 336 896
WIRE 48 928 48 896
FLAG 32 288 0
FLAG 32 32 IN
FLAG 320 32 cap+Vin
FLAG 512 32 OP
FLAG 48 928 0
FLAG 48 672 IN2
FLAG 336 672 cap2+Vin2
FLAG 528 672 OP2
SYMBOL voltage 32 96 R0
WINDOW 3 -90 99 Left 2
WINDOW 123 0 0 Left 0
WINDOW 39 0 0 Left 0
SYMATTR Value SINE(0 10 100)
SYMATTR InstName V1
SYMBOL cap 192 16 R90
WINDOW 0 0 32 VBottom 2
WINDOW 3 32 32 VTop 2
SYMATTR InstName C1
SYMATTR Value 10µ
SYMATTR SpiceLine V=25
SYMBOL diode 336 176 R180
WINDOW 0 24 64 Left 2
WINDOW 3 24 0 Left 2
SYMATTR InstName D1
SYMBOL res 496 80 R0
SYMATTR InstName R1
SYMATTR Value 10k
SYMBOL voltage 48 736 R0
WINDOW 3 -90 99 Left 2
WINDOW 123 0 0 Left 0
WINDOW 39 0 0 Left 0
SYMATTR Value SINE(0 10 100)
SYMATTR InstName V2
SYMBOL cap 208 656 R90
WINDOW 0 0 32 VBottom 2
WINDOW 3 32 32 VTop 2
SYMATTR InstName C2
SYMATTR Value 10µ
SYMATTR SpiceLine V=25
SYMBOL diode 320 752 R0
SYMATTR InstName D2
SYMBOL res 512 720 R0
SYMATTR InstName R2
SYMATTR Value 10k
TEXT 232 304 Left 2 !.tran 0.05
TEXT 664 24 Left 2 ;Here \n \nVin = 10v 100Hz ( time period = 1/100 = 0.01sec = 10ms )\nTau = RC = 10k * 10uf = 0.1sec = 100ms )\n \nhere RC(100ms) is 10times more than T(10ms) - required condition for this ckt to work as a positive clamper)
TEXT 248 944 Left 2 ;.tran 0.05
TEXT 40 -96 Left 2 ;Positive Clamper circuit without bias
TEXT 112 1056 Left 2 ;Negative Clamper circuit without bias
TEXT 688 664 Left 2 ;Here \n \nVin = 10v 100Hz ( time period = 1/100 = 0.01sec = 10ms )\nTau = RC = 10k * 10uf = 0.1sec = 100ms )\n \nhere RC(100ms) is 10times more than T(10ms) - required condition for this ckt to work as a Negative clamper)
