Version 4.1
SHEET 1 1132 680
WIRE 128 32 32 32
WIRE 320 32 192 32
WIRE 512 32 320 32
WIRE 512 96 512 32
WIRE 32 112 32 32
WIRE 320 112 320 32
WIRE 32 256 32 192
WIRE 320 256 320 176
WIRE 320 256 32 256
WIRE 512 256 512 176
WIRE 512 256 320 256
WIRE 32 288 32 256
FLAG 32 288 0
FLAG 32 32 IN
FLAG 320 32 cap+Vin
FLAG 512 32 OP
SYMBOL voltage 32 96 R0
WINDOW 3 -90 99 Left 2
WINDOW 123 0 0 Left 0
WINDOW 39 0 0 Left 0
SYMATTR Value PULSE(-5 5 0 1u 1u 5m 10m)
SYMATTR InstName V1
SYMBOL cap 192 16 R90
WINDOW 0 0 32 VBottom 2
WINDOW 3 32 32 VTop 2
SYMATTR InstName C1
SYMATTR Value 10µ
SYMATTR SpiceLine V=25
SYMBOL diode 304 112 R0
SYMATTR InstName D1
SYMBOL res 496 80 R0
SYMATTR InstName R1
SYMATTR Value 10k
TEXT 232 304 Left 2 !.tran 0.05
TEXT -152 400 Left 2 ;Here \n \nVin = +5 and -5v pulse signal ( time period = 10ms )\nTau = RC = 10k * 10uf = 0.1sec = 100ms )\n \nhere RC(100ms) is 10times more than T(10ms) - required condition for this ckt to work as a negative clamper)
