Version 4.1
SHEET 1 7112 1620
WIRE 2320 -1072 2240 -1072
WIRE 2240 -1024 2240 -1072
WIRE 2320 -1024 2320 -1072
WIRE 2240 -896 2240 -944
WIRE 2240 -752 2240 -816
WIRE 3056 -752 2240 -752
WIRE 2240 -704 2240 -752
WIRE 2240 -704 2016 -704
WIRE 2464 -704 2240 -704
WIRE 2016 -640 2016 -704
WIRE 2464 -640 2464 -704
WIRE 1760 -592 1600 -592
WIRE 1952 -592 1840 -592
WIRE 2640 -592 2528 -592
WIRE 2832 -592 2720 -592
WIRE 1104 -544 -240 -544
WIRE 2016 -400 2016 -544
WIRE 2240 -400 2016 -400
WIRE 2464 -400 2464 -544
WIRE 2464 -400 2240 -400
WIRE 2240 -352 2240 -400
WIRE 3904 -288 3824 -288
WIRE 432 -272 352 -272
WIRE 3824 -240 3824 -288
WIRE 3904 -240 3904 -288
WIRE 352 -224 352 -272
WIRE 432 -224 432 -272
WIRE 1104 -224 1104 -544
WIRE 1600 -224 1600 -592
WIRE 1600 -224 1104 -224
WIRE 3824 -112 3824 -160
WIRE 352 -96 352 -144
WIRE 3824 16 3824 -32
WIRE 5008 16 3824 16
WIRE 352 48 352 -16
WIRE 1184 48 352 48
WIRE 1184 80 1184 48
WIRE 2832 80 2832 -592
WIRE 2832 80 1184 80
WIRE 3824 80 3824 16
WIRE 3824 80 3600 80
WIRE 4048 80 3824 80
WIRE 352 96 352 48
WIRE 352 96 128 96
WIRE 576 96 352 96
WIRE 3600 144 3600 80
WIRE 4048 144 4048 80
WIRE 128 160 128 96
WIRE 576 160 576 96
WIRE 3344 192 3264 192
WIRE 3536 192 3424 192
WIRE 4224 192 4112 192
WIRE 4560 192 4304 192
WIRE -240 208 -240 -544
WIRE -128 208 -240 208
WIRE 64 208 -48 208
WIRE 752 208 640 208
WIRE 944 208 832 208
WIRE 1088 208 944 208
WIRE 944 288 944 208
WIRE -240 304 -240 208
WIRE 3056 368 3056 -752
WIRE 3264 368 3264 192
WIRE 3264 368 3056 368
WIRE 944 384 944 368
WIRE 3600 384 3600 240
WIRE 3824 384 3600 384
WIRE 4048 384 4048 240
WIRE 4048 384 3824 384
WIRE -240 400 -240 384
WIRE 128 400 128 256
WIRE 352 400 128 400
WIRE 576 400 576 256
WIRE 576 400 352 400
WIRE 3824 432 3824 384
WIRE 352 448 352 400
WIRE 2320 656 2240 656
WIRE 2240 704 2240 656
WIRE 2320 704 2320 656
WIRE 2240 832 2240 784
WIRE 2240 976 2240 912
WIRE 3072 976 2240 976
WIRE 4560 976 4560 192
WIRE 4560 976 3072 976
WIRE 2240 1024 2240 976
WIRE 2240 1024 2016 1024
WIRE 2464 1024 2240 1024
WIRE 2016 1088 2016 1024
WIRE 2464 1088 2464 1024
WIRE 1184 1136 1184 80
WIRE 1760 1136 1184 1136
WIRE 1952 1136 1840 1136
WIRE 2640 1136 2528 1136
WIRE 2832 1136 2720 1136
WIRE 2016 1328 2016 1184
WIRE 2240 1328 2016 1328
WIRE 2464 1328 2464 1184
WIRE 2464 1328 2240 1328
WIRE 2240 1376 2240 1328
WIRE 1088 1616 1088 208
WIRE 2832 1616 2832 1136
WIRE 2832 1616 1088 1616
FLAG -240 208 A
FLAG -240 400 0
FLAG 944 208 B
FLAG 352 448 0
FLAG 432 -224 0
FLAG 944 384 0
FLAG 2240 -352 0
FLAG 2320 -1024 0
FLAG 3056 -752 Op--stage1
FLAG 2240 1376 0
FLAG 2320 704 0
FLAG 3072 976 Op--stage2
FLAG 3824 432 0
FLAG 3904 -240 0
FLAG 5008 16 op_XNOR_gate
SYMBOL voltage -240 288 R0
WINDOW 3 24 44 Left 2
WINDOW 123 0 0 Left 0
WINDOW 39 0 0 Left 0
SYMATTR Value 5
SYMATTR InstName V1
SYMBOL npn 64 160 R0
SYMATTR InstName Q1
SYMATTR Value BC547B
SYMBOL voltage 352 -128 R180
WINDOW 0 24 96 Left 2
WINDOW 3 24 16 Left 2
WINDOW 123 0 0 Left 0
WINDOW 39 0 0 Left 0
SYMATTR InstName V2
SYMATTR Value 5
SYMBOL res 336 -112 R0
SYMATTR InstName R1
SYMATTR Value 5k
SYMBOL res -32 192 R90
WINDOW 0 0 56 VBottom 2
WINDOW 3 32 56 VTop 2
SYMATTR InstName R2
SYMATTR Value 43k
SYMBOL npn 640 160 M0
SYMATTR InstName Q2
SYMATTR Value BC547B
SYMBOL res 736 192 M90
WINDOW 0 0 56 VBottom 2
WINDOW 3 32 56 VTop 2
SYMATTR InstName R3
SYMATTR Value 43k
SYMBOL voltage 944 272 M0
WINDOW 3 24 44 Left 2
WINDOW 123 0 0 Left 0
WINDOW 39 0 0 Left 0
SYMATTR Value 0
SYMATTR InstName V3
SYMBOL npn 1952 -640 R0
SYMATTR InstName Q3
SYMATTR Value BC547B
SYMBOL voltage 2240 -928 R180
WINDOW 0 24 96 Left 2
WINDOW 3 24 16 Left 2
WINDOW 123 0 0 Left 0
WINDOW 39 0 0 Left 0
SYMATTR InstName V5
SYMATTR Value 5
SYMBOL res 2224 -912 R0
SYMATTR InstName R4
SYMATTR Value 5k
SYMBOL res 1856 -608 R90
WINDOW 0 0 56 VBottom 2
WINDOW 3 32 56 VTop 2
SYMATTR InstName R5
SYMATTR Value 43k
SYMBOL npn 2528 -640 M0
SYMATTR InstName Q4
SYMATTR Value BC547B
SYMBOL res 2624 -608 M90
WINDOW 0 0 56 VBottom 2
WINDOW 3 32 56 VTop 2
SYMATTR InstName R6
SYMATTR Value 43k
SYMBOL npn 1952 1088 R0
SYMATTR InstName Q5
SYMATTR Value BC547B
SYMBOL voltage 2240 800 R180
WINDOW 0 24 96 Left 2
WINDOW 3 24 16 Left 2
WINDOW 123 0 0 Left 0
WINDOW 39 0 0 Left 0
SYMATTR InstName V8
SYMATTR Value 5
SYMBOL res 2224 816 R0
SYMATTR InstName R7
SYMATTR Value 5k
SYMBOL res 1856 1120 R90
WINDOW 0 0 56 VBottom 2
WINDOW 3 32 56 VTop 2
SYMATTR InstName R8
SYMATTR Value 43k
SYMBOL npn 2528 1088 M0
SYMATTR InstName Q6
SYMATTR Value BC547B
SYMBOL res 2624 1120 M90
WINDOW 0 0 56 VBottom 2
WINDOW 3 32 56 VTop 2
SYMATTR InstName R9
SYMATTR Value 43k
SYMBOL npn 3536 144 R0
SYMATTR InstName Q7
SYMATTR Value BC547B
SYMBOL voltage 3824 -144 R180
WINDOW 0 24 96 Left 2
WINDOW 3 24 16 Left 2
WINDOW 123 0 0 Left 0
WINDOW 39 0 0 Left 0
SYMATTR InstName V4
SYMATTR Value 5
SYMBOL res 3808 -128 R0
SYMATTR InstName R10
SYMATTR Value 5k
SYMBOL res 3440 176 R90
WINDOW 0 0 56 VBottom 2
WINDOW 3 32 56 VTop 2
SYMATTR InstName R11
SYMATTR Value 43k
SYMBOL npn 4112 144 M0
SYMATTR InstName Q8
SYMATTR Value BC547B
SYMBOL res 4208 176 M90
WINDOW 0 0 56 VBottom 2
WINDOW 3 32 56 VTop 2
SYMATTR InstName R12
SYMATTR Value 43k
TEXT -800 80 Left 2 !.tran 40m
TEXT -776 48 Left 2 ;.op
TEXT -736 168 Center 2 ;XOR gate truth table\n-------------------------\n \nA       B      OP\n---     ---    ---\n0       0      0\n0       1      1\n1       0      1\n1       1      0
TEXT 312 -392 Left 6 ;NOR
TEXT 2200 -1192 Left 6 ;NOR
TEXT 2200 536 Left 6 ;NOR
TEXT 3784 -408 Left 6 ;NOR
