Version 4.1
SHEET 1 880 932
WIRE 176 64 96 64
WIRE 304 64 240 64
WIRE 96 112 96 64
WIRE 304 112 304 64
WIRE 304 256 304 192
WIRE 96 352 96 192
WIRE 304 352 304 336
WIRE 304 352 96 352
WIRE 96 384 96 352
WIRE 192 592 112 592
WIRE 320 592 256 592
WIRE 112 640 112 592
WIRE 320 640 320 592
WIRE 320 784 320 720
WIRE 112 880 112 720
WIRE 320 880 320 864
WIRE 320 880 112 880
WIRE 112 912 112 880
FLAG 96 64 IN
FLAG 304 64 OUT
FLAG 96 384 0
FLAG 112 592 IN2
FLAG 320 592 OUT2
FLAG 112 912 0
SYMBOL voltage 96 96 R0
WINDOW 123 0 0 Left 0
WINDOW 39 0 0 Left 0
SYMATTR InstName V1
SYMATTR Value SINE(0 10 100)
SYMBOL diode 176 80 R270
WINDOW 0 32 32 VTop 2
WINDOW 3 0 32 VBottom 2
SYMATTR InstName D1
SYMBOL res 288 96 R0
SYMATTR InstName R1
SYMATTR Value 10k
SYMBOL voltage 304 240 R0
WINDOW 123 0 0 Left 0
WINDOW 39 0 0 Left 0
SYMATTR InstName V3
SYMATTR Value 2
SYMBOL voltage 112 624 R0
WINDOW 123 0 0 Left 0
WINDOW 39 0 0 Left 0
SYMATTR InstName V2
SYMATTR Value SINE(0 10 100)
SYMBOL diode 192 608 R270
WINDOW 0 32 32 VTop 2
WINDOW 3 0 32 VBottom 2
SYMATTR InstName D2
SYMBOL res 304 624 R0
SYMATTR InstName R2
SYMATTR Value 10k
SYMBOL voltage 320 880 R180
WINDOW 123 0 0 Left 0
WINDOW 39 0 0 Left 0
SYMATTR InstName V4
SYMATTR Value 2
TEXT 184 376 Left 2 ;.tran 0.05
TEXT 0 -56 Left 2 ;Series negative clipper with positive bias
TEXT 32 488 Left 2 ;Series negative clipper with negative bias
TEXT 200 904 Left 2 !.tran 0.05
